*Heading
** Job name: Job-4 Model name: Model-1
** Generated by: Abaqus/CAE 6.14-5
*Preprint, echo=NO, model=NO, history=NO, contact=NO
**
** PARTS
**
*Part, name=beam
*Node
      1,           0.,           0.
      2, 0.00100000005,           0.
      3, 0.00200000009,           0.
      4, 0.00300000003,           0.
      5, 0.00400000019,           0.
      6, 0.00499999989,           0.
      7, 0.00600000005,           0.
      8, 0.00700000022,           0.
      9, 0.00800000038,           0.
     10, 0.00899999961,           0.
     11, 0.00999999978,           0.
     12, 0.0109999999,           0.
     13, 0.0120000001,           0.
     14, 0.0130000003,           0.
     15, 0.0140000004,           0.
     16, 0.0149999997,           0.
     17, 0.0160000008,           0.
     18, 0.0170000009,           0.
     19, 0.0179999992,           0.
     20, 0.0189999994,           0.
** ... 51 like lines cut
*Element, type=B21
 1,  1,  2
 2,  2,  3
 3,  3,  4
 4,  4,  5
 5,  5,  6
 6,  6,  7
 7,  7,  8
 8,  8,  9
 9,  9, 10
10, 10, 11
11, 11, 12
12, 12, 13
13, 13, 14
14, 14, 15
15, 15, 16
16, 16, 17
17, 17, 18
18, 18, 19
19, 19, 20
20, 20, 21
** ... 50 like lines cut
*Nset, nset=beam, generate
  1,  71,   1
*Elset, elset=beam, generate
  1,  70,   1
*Nset, nset=Set-2, generate
  1,  71,   1
*Elset, elset=Set-2, generate
  1,  70,   1
** Section: beamSection  Profile: Profile-1
*Beam Section, elset=beam, material=beamMaterial, poisson = 0.3, temperature=GRADIENTS, section=RECT
0.03, 0.01
0.,0.,-1.
*End Part
**  
**
** ASSEMBLY
**
*Assembly, name=Assembly
**  
*Instance, name=beam-1, part=beam
*End Instance
**  
*Nset, nset=beam_end, instance=beam-1
 71,
*Nset, nset=beam_fixed, instance=beam-1
 1,
*End Assembly
*Amplitude, name=loadAmplitude, definition=PERIODIC
1,            100.,              0.,              0.
             0.,              1.
** 
** MATERIALS
** 
*Material, name=beamMaterial
*Damping, alpha=451.68, beta=6.978e-07
*Density
2700.,
*Elastic
 7.3e+10, 0.3
** 
** BOUNDARY CONDITIONS
** 
** Name: BC-1 Type: Symmetry/Antisymmetry/Encastre
*Boundary
beam_fixed, ENCASTRE
** ----------------------------------------------------------------
** 
** STEP: Step-1
** 
*Step, name=Step-1, nlgeom=YES, inc=10000
*Dynamic
0.01,1.,1e-15
** 
** LOADS
** 
** Name: Load-1   Type: Concentrated force
*Cload, amplitude=loadAmplitude
beam_end, 2, -10000.
** 
** OUTPUT REQUESTS
** 
*Restart, write, frequency=0
** 
** FIELD OUTPUT: F-Output-1
** 
*Output, field, variable=PRESELECT, time interval=0.001
** 
** HISTORY OUTPUT: H-Output-1
** 
*Output, history, time interval=0.001
*Node Output, nset=beam_end
A1, A2, A3, AR, AR1, AR2, AR3, AT
U1, U2, U3, UR, UR1, UR2, UR3, UT
V1, V2, V3, VR, VR1, VR2, VR3, VT
*End Step
